LAMMPS (8 Feb 2023)
# this script is inspired from lammpstutorials.github.io's first tutorial

units lj
dimension 2
atom_style atomic
pair_style lj/cut 2.5
boundary p p p

# uncomment to re-create the system
region simulation_box block -50 50 -50 50 -1 1
create_box 1 simulation_box
Created orthogonal box = (-50 -50 -1) to (50 50 1)
create_atoms 1 random 100 341341 simulation_box overlap 2 maxtry 10
Created 100 atoms
mass 1 1
pair_coeff 1 1 1.0 1.0

# read_data topology.data

velocity all create 1.0 4928459 mom yes rot yes dist gaussian
fix mynve all nve
fix mylgv all langevin 1.0 1.0 0.1 1530917 zero yes
fix myenf all enforce2d

run 5000
Generated 0 of 0 mixed pair_coeff terms from geometric mixing rule
Step          Temp          E_pair         E_mol          TotEng         Press
0   1             -0.001467399    0              0.9885326      0.0098563691
Loop time of 0.019343 on 1 procs for 5000 steps with 100 atoms

thermo 1000
dump mydmp all atom 10 dump.lammpstrj

timestep 0.005

run 20000
Generated 0 of 0 mixed pair_coeff terms from geometric mixing rule
Step          Temp          E_pair         E_mol          TotEng         Press
5000   0.95221806    -0.031632724    0              0.91106316     0.010184449
Averages over the last 11 of 21 rows, steps 15000 to 25000:
Temp E_pair E_mol TotEng Press
1.00232 -0.0280015 0 0.964295 0.00977295
Loop time of 0.164049 on 1 procs for 20000 steps with 100 atoms

# write_data topology.data
